16
Properties=species:S:1:pos:R:3:forces:R:3 energy=-11354.645987662285 pbc="F F F"
C      -0.41197361      -0.09437420      -5.99829278       0.00001779       0.00007574      -0.00002064 
C      -1.74581963      -0.10783817      -5.60984831       0.00001434      -0.00002501       0.00000515 
C       0.59793492       0.21175573      -5.07025184       0.00000093      -0.00000865      -0.00001146 
H      -2.53847949      -0.34296217      -6.32009130       0.00006356      -0.00002087       0.00004341 
H       1.64120255       0.21860901      -5.39120829      -0.00001222      -0.00001637      -0.00002512 
C      -2.04538133       0.19175340      -4.26938140      -0.00001412       0.00000346       0.00002127 
C       0.28008730       0.50763232      -3.73990404       0.00001395      -0.00003986       0.00001201 
H       1.06738953       0.74446437      -3.02327513      -0.00002364      -0.00000353      -0.00001242 
C      -1.04984529       0.49971036      -3.32707210      -0.00004601       0.00001277       0.00002634 
H      -1.31069408       0.72909997      -2.29062649      -0.00003220       0.00000551       0.00002040 
H      -0.15158169      -0.32346888      -7.03256824      -0.00001522      -0.00000978      -0.00003565 
N      -3.37656809       0.19903785      -3.79700908      -0.00000161       0.00001602      -0.00001102 
H      -6.22409160      -0.16642359      -4.37164543       0.00001192      -0.00000835       0.00002309 
H      -3.53749812       0.42628285      -2.80122395       0.00002701       0.00000967      -0.00001389 
N      -4.38783610      -0.05281555      -4.50678501      -0.00001502       0.00002095      -0.00000642 
O      -5.48528656       0.03886638      -3.76350446       0.00001055      -0.00001169      -0.00001503 
