19
Properties=species:S:1:pos:R:3:forces:R:3 energy=-13434.722210227459 pbc="F F F"
C      -0.52834739      -0.33220992      -5.89381076      -0.00026874       0.00005067      -0.00003189 
C      -1.73830760      -0.65005788      -5.28226263      -0.00003433      -0.00032592      -0.00007246 
C       0.50013984       0.26368848      -5.15149750      -0.00003262       0.00028743      -0.00012495 
H      -2.54206462      -1.11366239      -5.86010631       0.00007131      -0.00106366       0.00032552 
H       1.44849695       0.50553794      -5.63494562      -0.00039626       0.00032835      -0.00000671 
C      -1.90390751      -0.38802013      -3.91000860       0.00002061      -0.00038868       0.00035316 
C       0.31931267       0.54390581      -3.79104154      -0.00000153      -0.00006020       0.00010786 
H       1.12337099       1.00855380      -3.21798499      -0.00018278      -0.00022853       0.00028678 
C      -0.88056841       0.22096418      -3.16054164       0.00006792      -0.00007475       0.00021827 
H      -1.02995703       0.40603807      -2.09490386       0.00002725       0.00021742      -0.00047921 
H      -0.38366272      -0.55642048      -6.95174234       0.00004771       0.00064204      -0.00015127 
N      -3.12919881      -0.70047730      -3.27243358       0.00007057       0.00010558      -0.00018128 
H      -3.07280576      -0.78520419      -2.23323517      -0.00037865      -0.00000660      -0.00011822 
H      -3.65105832      -1.47255539      -3.69888866      -0.00026825       0.00030066      -0.00020857 
O      -2.79249861      -0.78864743      -0.51591059      -0.00015213      -0.00002069       0.00045002 
H      -2.27936901      -1.47640365      -0.06277745      -0.00032805       0.00021497       0.00052817 
H      -3.24837506      -0.31289725       0.19647611       0.00082195      -0.00042978      -0.00036407 
N      -4.29890723       0.87949870      -3.48522078       0.00123679       0.00038466       0.00018122 
O      -5.12308793       0.70351805      -4.22712739      -0.00032077       0.00006703      -0.00071236 
