19
Properties=species:S:1:pos:R:3:forces:R:3 C6N2H9O2=T energy=-493.4370883826393 pbc="F F F"
C      -0.52580553       0.03783240      -5.98134494       0.00331132       0.00010623      -0.00091013 
C      -1.67974899      -0.44996419      -5.38502689      -0.00300449      -0.00044655       0.00187648 
C       0.56049639       0.44101892      -5.19211270       0.00103828       0.00097744       0.00268409 
H      -2.52632820      -0.76315207      -5.99930406      -0.00052645      -0.00126361      -0.00014615 
H       1.47443692       0.79560199      -5.67165240       0.00018784       0.00059707       0.00002494 
C      -1.75058540      -0.51947099      -3.98247654      -0.00171135      -0.00226433      -0.00320644 
C       0.48150916       0.38854337      -3.79104658      -0.00263543      -0.00164568      -0.00517850 
H       1.32877501       0.69054456      -3.17694485       0.00101594       0.00111958       0.00050350 
C      -0.68188157      -0.08233473      -3.18446829       0.00113905       0.00168383       0.00517001 
H      -0.75768742      -0.14376638      -2.09179912       0.00050808      -0.00027455      -0.00282894 
H      -0.46573796       0.08952159      -7.06883877       0.00069387       0.00042486      -0.00067301 
N      -2.90364206      -1.04625381      -3.35825244      -0.00018054       0.00123516       0.00266559 
H      -2.82625295      -1.07874891      -2.32573792      -0.00220579      -0.00162606      -0.00119217 
H      -3.28226021      -1.90762532      -3.77108672       0.00112180       0.00199621       0.00120952 
O      -3.25063251      -0.17456638      -0.72625631       0.00129005       0.00292218      -0.00151218 
H      -3.57673255      -0.53506639       0.11052930      -0.00085609      -0.00298696       0.00284372 
H      -2.82639550       0.65785432      -0.45765956      -0.00010769      -0.00051638      -0.00104839 
N      -4.58304121       0.09065267      -3.29867869       0.00325354      -0.00129069       0.00089511 
O      -5.41927396      -0.53546919      -2.89580396      -0.00233193       0.00125227      -0.00117706 
